@<TRIPOS>MOLECULE
generated by VMD
   56    0    1    0    0
SMALL
USER_CHARGES
****
Energy = 0

@<TRIPOS>ATOM
      1 C1         -7.9880    9.0830   -0.6770 ca    272  CPD         -0.187539
      2 C2         -9.0020    8.2220   -0.3190 ca    272  CPD         0.176721
      3 N3         -9.7870    7.7090   -1.2630 nb    272  CPD         -0.244986
      4 C4         -9.6380    8.1680   -2.5100 ca    272  CPD         0.625279
      5 N5         -8.7240    9.0460   -2.9890 nb    272  CPD         -0.769749
      6 C6         -7.8680    9.5070   -2.0160 ca    272  CPD         0.406948
      7 C7         -7.1240    9.7430    0.3820 c3    272  CPD         0.203402
      8 N11       -10.4580    7.7160   -3.5150 nh    272  CPD         -0.414853
      9 C12       -11.7240    7.0370   -3.5280 ca    272  CPD         0.018075
     10 C13       -12.3290    6.7170   -4.8520 ca    272  CPD         -0.123773
     11 C14       -13.4160    5.6370   -2.5200 ca    272  CPD         -0.195874
     12 C15       -12.3710    6.4840   -2.3900 ca    272  CPD         -0.138027
     13 C16       -13.9970    5.4120   -3.7600 ca    272  CPD         0.039110
     14 C17       -13.4800    5.9270   -4.9160 ca    272  CPD         -0.011388
     15 C18       -14.3320    5.5550   -6.0840 c3    272  CPD         -0.062317
     16 C19       -15.5170    4.7350   -5.3820 c     272  CPD         0.603151
     17 N20       -15.1600    4.7760   -4.0680 n     272  CPD         -0.415094
     18 O21       -16.6200    4.2920   -5.8490 o     272  CPD         -0.590420
     19 N22        -9.2490    7.8790    1.0300 nh    272  CPD         -0.240004
     20 C23        -9.9450    6.6470    1.5560 c3    272  CPD         0.019071
     21 C24        -9.1340    5.3630    1.7850 ca    272  CPD         0.048830
     22 C25        -7.7740    5.4550    1.9200 ca    272  CPD         -0.053039
     23 C26        -6.9970    4.2680    1.8470 ca    272  CPD         -0.184209
     24 C27        -7.5900    3.0150    1.8220 ca    272  CPD         -0.170472
     25 C28        -8.9760    2.9470    1.8080 ca    272  CPD         -0.133983
     26 C29        -9.7590    4.1110    1.7490 ca    272  CPD         -0.002834
     27 N30       -11.1020    3.9410    1.5800 nh    272  CPD         -0.078347
     28 S31       -12.3020    4.3750    2.7730 s6    272  CPD         0.914458
     29 C32       -11.5370    3.5930    0.2320 c3    272  CPD         -0.211838
     30 O33       -13.2990    5.1110    2.0530 o     272  CPD         -0.487327
     31 C34       -13.1710    2.8140    3.1930 c3    272  CPD         -0.426243
     32 O35       -11.6800    4.9330    3.9600 o     272  CPD         -0.531569
     33 F10        -7.7970   10.4160    1.3570 f     272  CPD         -0.109083
     34 F8         -6.1810   10.5970   -0.1270 f     272  CPD         -0.117960
     35 F9         -6.3810    8.8380    1.0110 f     272  CPD         -0.104289
     36 H01       -12.5060    2.1710    3.7820 h1    272  CPD         0.150605
     37 H02        -7.2270   10.2990   -2.4010 h4    272  CPD         0.083210
     38 H03       -10.1580    8.0740   -4.4120 hn    272  CPD         0.326923
     39 H04       -11.7280    7.1090   -5.6670 ha    272  CPD         0.131587
     40 H05       -14.0260    5.2930   -1.6900 ha    272  CPD         0.172543
     41 H06       -12.1070    6.7800   -1.3790 ha    272  CPD         0.139331
     42 H07       -14.6600    6.3890   -6.7160 hc    272  CPD         0.072688
     43 H08       -15.6430    4.1460   -3.4380 hn    272  CPD         0.333448
     44 H09        -8.6550    8.4050    1.6590 hn    272  CPD         0.205374
     45 H10       -10.8700    6.4690    0.9950 h1    272  CPD         0.063264
     46 H11        -7.3020    6.4320    1.9610 ha    272  CPD         0.076764
     47 H12        -5.9160    4.3600    1.7980 ha    272  CPD         0.165667
     48 H13        -6.9960    2.1060    1.8400 ha    272  CPD         0.155384
     49 H14        -9.2840    1.9100    1.7110 ha    272  CPD         0.132153
     50 H15       -10.7990    3.9920   -0.4750 h1    272  CPD         0.086184
     51 H16       -13.5090    2.3430    2.2620 h1    272  CPD         0.142674
     52 H17       -10.2690    6.9660    2.5540 h1    272  CPD         0.023352
     53 H18       -12.4430    4.1510   -0.0390 h1    272  CPD         0.119933
     54 H19       -13.9620    3.1550    3.8710 h1    272  CPD         0.192998
     55 H20       -11.8810    2.5630    0.0770 h1    272  CPD         0.107520
     56 H21       -13.7170    4.8710   -6.6810 hc    272  CPD         0.068570

@<TRIPOS>SUBSTRUCTURE
1 ****        1 TEMP                        0 ****  **** 0 ROOT
