@<TRIPOS>MOLECULE
CPD
   56    58     1     0     0
SMALL
No Charge or Current Charge


@<TRIPOS>ATOM
      1 C35         -1.6220   -12.2700    37.4070 c3         1 CPD      -0.270135
      2 C34         -1.8820   -12.4060    33.8680 c3         1 CPD      -0.344746
      3 N2           3.3120    -8.8470    41.4260 nb         1 CPD      -0.899659
      4 C7           4.2920    -8.4900    40.5700 ca         1 CPD       0.551155
      5 C6           4.2510    -8.7730    39.1990 ca         1 CPD      -0.678470
      6 C13          0.5850    -9.7350    36.6540 ca         1 CPD       0.226712
      7 C20         -0.6730   -10.3220    36.3570 ca         1 CPD       0.560917
      8 C21         -2.7620   -11.0400    41.4040 ca         1 CPD      -0.292860
      9 C8           5.3760    -8.3340    38.2850 c3         1 CPD       0.718835
     10 C18         -0.3330    -7.6430    36.2720 ca         1 CPD       0.062700
     11 C16         -0.8340    -9.9090    40.4220 ca         1 CPD      -0.260613
     12 C19         -1.5840    -8.2350    36.0180 ca         1 CPD       0.049780
     13 O33          0.7130   -12.0370    34.2630 o          1 CPD      -0.560698
     14 S31         -0.4360   -12.6710    34.9240 s6         1 CPD       1.117944
     15 O32         -0.4220   -14.0760    35.3410 o          1 CPD      -0.560698
     16 N30         -0.8430   -11.7130    36.3030 nh         1 CPD      -0.566061
     17 N17          0.7570    -8.3780    36.6000 nb         1 CPD      -0.414058
     18 N1          -1.7710    -9.5740    36.0740 nb         1 CPD      -0.407794
     19 C12          1.7960   -10.5970    36.9830 c3         1 CPD       0.063431
     20 N10          2.9880    -9.8790    37.4190 nh         1 CPD      -0.628309
     21 C5           3.1200    -9.4770    38.7550 ca         1 CPD       0.671753
     22 F29          4.8840    -7.5660    37.3070 f          1 CPD      -0.222654
     23 F28          6.2900    -7.6160    38.9420 f          1 CPD      -0.222654
     24 F27          5.9840    -9.3880    37.7410 f          1 CPD      -0.222654
     25 N4           2.1480    -9.8330    39.6160 nb         1 CPD      -0.651388
     26 C3           2.2820    -9.4740    40.8840 ca         1 CPD       1.098705
     27 N9           1.2510    -9.7390    41.7450 nh         1 CPD      -0.806413
     28 C11         -0.0640   -10.1820    41.5780 ca         1 CPD       0.399391
     29 C14         -0.6480   -10.9030    42.6340 ca         1 CPD      -0.260613
     30 C22         -1.9770   -11.3320    42.5450 ca         1 CPD      -0.048098
     31 C15         -2.1800   -10.3290    40.3390 ca         1 CPD      -0.048098
     32 C32         -5.4800   -13.1010    42.6970 c3         1 CPD      -0.073957
     33 H351        -1.7540   -13.3470    37.3140 h1         1 CPD       0.153834
     34 H352        -2.6110   -11.8180    37.4650 h1         1 CPD       0.153834
     35 H353        -1.1040   -12.0820    38.3440 h1         1 CPD       0.153834
     36 H341        -1.7430   -12.9590    32.9410 h1         1 CPD       0.132904
     37 H342        -1.9680   -11.3440    33.6550 h1         1 CPD       0.132904
     38 H343        -2.7760   -12.7500    34.3810 h1         1 CPD       0.132904
     39 H7           5.1340    -7.9710    40.9890 h4         1 CPD       0.088344
     40 H18         -0.2150    -6.5720    36.1870 h4         1 CPD       0.114844
     41 H16         -0.3940    -9.3830    39.5940 ha         1 CPD       0.160562
     42 H19         -2.4390    -7.6260    35.7650 h4         1 CPD       0.105092
     43 H121         2.0630   -11.1560    36.0950 h1         1 CPD       0.099756
     44 H122         1.5170   -11.3390    37.7300 h1         1 CPD       0.099756
     45 H10          3.4870    -9.3730    36.7060 hn         1 CPD       0.377048
     46 H9           1.5260    -9.6020    42.6980 hn         1 CPD       0.402026
     47 H14         -0.0610   -11.1450    43.5010 ha         1 CPD       0.160562
     48 H15         -2.7450   -10.1310    39.4490 ha         1 CPD       0.117636
     49 C49         -4.1590   -11.5830    41.3100 c          1 CPD       0.852398
     50 O50         -4.7170   -11.7810    40.2360 o          1 CPD      -0.592639
     51 H22         -2.3780   -11.9220    43.3550 ha         1 CPD       0.117636
     52 N52         -4.6740   -11.9180    42.4980 n          1 CPD      -0.657817
     53 H53         -5.5860   -13.2880    43.7670 h1         1 CPD       0.085940
     54 H54         -6.4620   -12.9780    42.2440 h1         1 CPD       0.085940
     55 H55         -4.9770   -13.9770    42.2750 h1         1 CPD       0.085940
     56 H56         -4.2260   -11.5400    43.3240 hn         1 CPD       0.356068
@<TRIPOS>BOND
     1     1    16 1   
     2     1    33 1   
     3     1    34 1   
     4     1    35 1   
     5     2    14 1   
     6     2    36 1   
     7     2    37 1   
     8     2    38 1   
     9     3     4 ar  
    10     3    26 ar  
    11     4     5 ar  
    12     4    39 1   
    13     5     9 1   
    14     5    21 ar  
    15     6     7 ar  
    16     6    17 ar  
    17     6    19 1   
    18     7    16 1   
    19     7    18 ar  
    20     8    30 ar  
    21     8    31 ar  
    22     8    49 1   
    23     9    22 1   
    24     9    23 1   
    25     9    24 1   
    26    10    12 ar  
    27    10    17 ar  
    28    10    40 1   
    29    11    28 ar  
    30    11    31 ar  
    31    11    41 1   
    32    12    18 ar  
    33    12    42 1   
    34    13    14 2   
    35    14    15 2   
    36    14    16 1   
    37    19    20 1   
    38    19    43 1   
    39    19    44 1   
    40    20    21 1   
    41    20    45 1   
    42    21    25 ar  
    43    25    26 ar  
    44    26    27 1   
    45    27    28 1   
    46    27    46 1   
    47    28    29 ar  
    48    29    30 ar  
    49    29    47 1   
    50    30    51 1   
    51    31    48 1   
    52    32    52 1   
    53    32    53 1   
    54    32    54 1   
    55    32    55 1   
    56    49    50 2   
    57    49    52 1   
    58    52    56 1   
@<TRIPOS>SUBSTRUCTURE
     1 CPD         1 TEMP              0 ****  ****    0 ROOT
