@<TRIPOS>MOLECULE
cpd
55   58    1
SMALL
USER_CHARGES


@<TRIPOS>ATOM
      1 C35        -1.6340  -12.3720   37.4330 C.3       1 CPD         0.0000 
      2 C34        -1.7980  -12.3380   33.9850 C.3       1 CPD         0.0000 
      3 N2          3.2650   -8.8830   41.4420 N.ar      1 CPD         0.0000 
      4 C7          4.2310   -8.5550   40.5630 C.ar      1 CPD         0.0000 
      5 C6          4.1710   -8.8430   39.2080 C.ar      1 CPD         0.0000 
      6 C13         0.5940   -9.7310   36.6130 C.ar      1 CPD         0.0000 
      7 C20        -0.6600  -10.2750   36.3090 C.ar      1 CPD         0.0000 
      8 C21        -2.7660  -11.1230   41.3600 C.ar      1 CPD         0.0000 
      9 C8          5.2620   -8.4190   38.2850 C.3       1 CPD         0.0000 
     10 C18        -0.3480   -7.5320   36.2250 C.ar      1 CPD         0.0000 
     11 C16        -0.9060  -10.0030   40.4470 C.ar      1 CPD         0.0000 
     12 C19        -1.5480   -8.1720   35.9330 C.ar      1 CPD         0.0000 
     13 O33         0.7510  -12.0470   34.3070 O.2       1 CPD         0.0000 
     14 S31        -0.3620  -12.6800   35.0020 S.o2      1 CPD         0.0000 
     15 O32        -0.3820  -14.0880   35.3210 O.2       1 CPD         0.0000 
     16 N30        -0.8880  -11.7280   36.3290 N.pl3     1 CPD         0.0000 
     17 C17         0.7350   -8.3310   36.5690 C.ar      1 CPD         0.0000 
     18 N1         -1.7330   -9.5100   35.9670 N.ar      1 CPD         0.0000 
     19 C12         1.7620  -10.5970   36.9830 C.3       1 CPD         0.0000 
     20 N10         2.8720   -9.7760   37.4100 N.pl3     1 CPD         0.0000 
     21 C5          3.0140   -9.4770   38.7580 C.ar      1 CPD         0.0000 
     22 F29         4.7720   -7.5920   37.3110 F         1 CPD         0.0000 
     23 F28         6.2060   -7.6350   38.8770 F         1 CPD         0.0000 
     24 F27         5.8980   -9.4440   37.6670 F         1 CPD         0.0000 
     25 N4          2.0340   -9.8190   39.6250 N.ar      1 CPD         0.0000 
     26 C3          2.1780   -9.5040   40.9320 C.ar      1 CPD         0.0000 
     27 N9          1.1670   -9.8200   41.8350 N.pl3     1 CPD         0.0000 
     28 C11        -0.1590  -10.2380   41.6320 C.ar      1 CPD         0.0000 
     29 C14        -0.7570  -10.9480   42.6890 C.ar      1 CPD         0.0000 
     30 C22        -2.0530  -11.3680   42.5260 C.ar      1 CPD         0.0000 
     31 C23        -2.9040  -12.1270   43.4880 C.3       1 CPD         0.0000 
     32 C15        -2.2230  -10.4420   40.2940 C.ar      1 CPD         0.0000 
     33 N25        -4.0420  -11.6670   41.4730 N.am      1 CPD         0.0000 
     34 C24        -4.2180  -12.2950   42.7140 C.2       1 CPD         0.0000 
     35 O26        -5.2060  -12.8810   43.1440 O.2       1 CPD         0.0000 
     36 H351       -1.6890  -13.4260   37.2590 H         1 CPD         0.0000 
     37 H352       -2.6230  -11.9670   37.4790 H         1 CPD         0.0000 
     38 H353       -1.1300  -12.1890   38.3590 H         1 CPD         0.0000 
     39 H341       -1.7020  -12.8490   33.0500 H         1 CPD         0.0000 
     40 H342       -1.8690  -11.2850   33.8110 H         1 CPD         0.0000 
     41 H343       -2.6800  -12.6760   34.4880 H         1 CPD         0.0000 
     42 H7          5.0640   -8.0610   40.9180 H         1 CPD         0.0000 
     43 H18        -0.2660   -6.5040   36.1880 H         1 CPD         0.0000 
     44 H16        -0.4600   -9.4890   39.6710 H         1 CPD         0.0000 
     45 H19        -2.3540   -7.5830   35.6720 H         1 CPD         0.0000 
     46 H17         1.6440   -7.8980   36.7930 H         1 CPD         0.0000 
     47 H121        2.0570  -11.1760   36.1330 H         1 CPD         0.0000 
     48 H122        1.4770  -11.2460   37.7850 H         1 CPD         0.0000 
     49 H10         3.5200   -9.4330   36.7530 H         1 CPD         0.0000 
     50 H9          1.4260   -9.7360   42.7810 H         1 CPD         0.0000 
     51 H14        -0.2380  -11.1460   43.5590 H         1 CPD         0.0000 
     52 H231       -3.0560  -11.5720   44.3900 H         1 CPD         0.0000 
     53 H232       -2.4710  -13.0550   43.7980 H         1 CPD         0.0000 
     54 H15        -2.7590  -10.2660   39.4300 H         1 CPD         0.0000 
     55 H25        -4.7320  -11.6170   40.7720 H         1 CPD         0.0000 
@<TRIPOS>BOND
     1    1   16 1    
     2    1   36 1    
     3    1   37 1    
     4    1   38 1    
     5    2   14 1    
     6    2   39 1    
     7    2   40 1    
     8    2   41 1    
     9    3    4 ar   
    10    3   26 ar   
    11    4    5 ar   
    12    4   42 1    
    13    5    9 1    
    14    5   21 ar   
    15    6    7 ar   
    16    6   17 ar   
    17    6   19 1    
    18    7   16 1    
    19    7   18 ar   
    20    8   30 ar   
    21    8   32 ar   
    22    8   33 1    
    23    9   22 1    
    24    9   23 1    
    25    9   24 1    
    26   10   12 ar   
    27   10   17 ar   
    28   10   43 1    
    29   11   28 ar   
    30   11   32 ar   
    31   11   44 1    
    32   12   18 ar   
    33   12   45 1    
    34   13   14 2    
    35   14   15 2    
    36   14   16 1    
    37   17   46 1    
    38   19   20 1    
    39   19   47 1    
    40   19   48 1    
    41   20   21 1    
    42   20   49 1    
    43   21   25 ar   
    44   25   26 ar   
    45   26   27 1    
    46   27   28 1    
    47   27   50 1    
    48   28   29 ar   
    49   29   30 ar   
    50   29   51 1    
    51   30   31 1    
    52   31   34 1    
    53   31   52 1    
    54   31   53 1    
    55   32   54 1    
    56   33   34 am   BACKBONE|DICT|INTERRES
    57   33   55 1    
    58   34   35 2    
@<TRIPOS>SUBSTRUCTURE
     1 CPD         1 GROUP             0 A     ****    0 ROOT    
