@<TRIPOS>MOLECULE
CPD
   56    58     1     0     0
SMALL
No Charge or Current Charge


@<TRIPOS>ATOM
      1 N2           3.2950    -8.8200    41.4860 nb         1 CPD      -0.879450
      2 C7           4.2660    -8.5370    40.6040 ca         1 CPD       0.520476
      3 C6           4.1150    -8.7420    39.2250 ca         1 CPD      -0.644934
      4 C21         -2.7780   -10.8190    41.7950 ca         1 CPD      -0.145692
      5 C8           5.2580    -8.3600    38.2980 c3         1 CPD       0.674115
      6 C16         -1.0630    -9.1620    41.2550 ca         1 CPD      -0.288295
      7 N10          2.6610    -9.5800    37.4510 nh         1 CPD      -0.601022
      8 C5           2.8880    -9.3080    38.8180 ca         1 CPD       0.669653
      9 F29          4.8280    -7.5840    37.3040 f          1 CPD      -0.214776
     10 F28          6.2090    -7.6890    38.9530 f          1 CPD      -0.214776
     11 F27          5.8080    -9.4560    37.7780 f          1 CPD      -0.214776
     12 N4           1.9180    -9.5580    39.7230 nb         1 CPD      -0.635638
     13 C3           2.1700    -9.3070    41.0060 ca         1 CPD       1.054460
     14 N9           1.2310    -9.5550    41.9910 nh         1 CPD      -0.771206
     15 C11         -0.1280    -9.8780    42.0400 ca         1 CPD       0.412579
     16 C14         -0.5690   -10.9330    42.8460 ca         1 CPD      -0.288295
     17 C22         -1.9010   -11.3970    42.7340 ca         1 CPD      -0.025399
     18 C15         -2.3870    -9.6530    41.1020 ca         1 CPD      -0.025399
     19 H7           5.1830    -8.1390    41.0110 h4         1 CPD       0.098576
     20 H15         -3.0770    -9.2350    40.3980 ha         1 CPD       0.143309
     21 H16         -0.6410    -8.3640    40.6680 ha         1 CPD       0.165291
     22 H14          0.1150   -11.4030    43.5230 ha         1 CPD       0.165291
     23 HN10         3.4470    -9.4310    36.8340 hn         1 CPD       0.403987
     24 HN9          1.6490    -9.5630    42.9020 hn         1 CPD       0.395306
     25 C25          1.6940   -10.5690    36.9590 c3         1 CPD      -0.076119
     26 C26          1.9130   -10.8270    35.4420 c3         1 CPD      -0.257697
     27 C27          0.5270   -10.8570    34.8120 c3         1 CPD      -0.037786
     28 C28         -0.1950    -9.7990    35.6290 c3         1 CPD      -0.235904
     29 C29          0.2090   -10.1170    37.0720 c3         1 CPD       0.118279
     30 H30          1.8660   -11.5090    37.4900 h1         1 CPD       0.191319
     31 H31          2.4740   -11.7350    35.2300 hc         1 CPD       0.109037
     32 H32          2.4530   -10.0030    34.9800 hc         1 CPD       0.109037
     33 H33          0.5170   -10.6390    33.7460 hc         1 CPD       0.062331
     34 H34          0.0590   -11.8290    34.9660 hc         1 CPD       0.062331
     35 H35          0.2090    -8.8190    35.3820 hc         1 CPD       0.092726
     36 H36         -1.2590    -9.7210    35.4290 hc         1 CPD       0.092726
     37 N37         -0.5860   -11.2530    37.5870 n3         1 CPD      -0.244266
     38 H38          0.0850    -9.2180    37.6910 h1         1 CPD       0.068969
     39 C39         -0.3900   -11.3010    39.0110 c3         1 CPD      -0.212538
     40 C40         -2.0180   -11.1410    37.3550 c3         1 CPD      -0.212538
     41 H41         -1.0670   -11.9220    39.5590 h1         1 CPD       0.094095
     42 H42          0.6080   -11.6100    39.2920 h1         1 CPD       0.094095
     43 H43         -0.4860   -10.3000    39.3580 h1         1 CPD       0.094095
     44 H44         -2.5660   -11.8440    37.9810 h1         1 CPD       0.094095
     45 H45         -2.4270   -10.1410    37.5110 h1         1 CPD       0.094095
     46 H46         -2.2070   -11.4340    36.3170 h1         1 CPD       0.094095
     47 H22         -2.2480   -12.2320    43.3460 ha         1 CPD       0.143309
     48 N48         -4.6440   -11.2820    39.7970 n3         1 CPD      -0.772210
     49 C49         -5.2940   -12.2950    38.9610 c3         1 CPD       0.095934
     50 H50         -5.1340   -10.3880    39.7490 hn         1 CPD       0.425256
     51 S51         -4.3650   -11.6290    41.4540 sy         1 CPD       1.146320
     52 O52         -5.4230   -10.9290    42.1900 o          1 CPD      -0.577961
     53 O53         -4.1860   -13.0820    41.5810 o          1 CPD      -0.577961
     54 H54         -5.2010   -13.3060    39.3690 h1         1 CPD       0.056484
     55 H55         -6.3600   -12.0780    38.8540 h1         1 CPD       0.056484
     56 H56         -4.8400   -12.3030    37.9680 h1         1 CPD       0.056484
@<TRIPOS>BOND
     1     1     2 ar  
     2     1    13 ar  
     3     2     3 ar  
     4     2    19 1   
     5     3     5 1   
     6     3     8 ar  
     7     4    17 ar  
     8     4    18 ar  
     9     4    51 1   
    10     5     9 1   
    11     5    10 1   
    12     5    11 1   
    13     6    15 ar  
    14     6    18 ar  
    15     6    21 1   
    16     7     8 1   
    17     7    23 1   
    18     7    25 1   
    19     8    12 ar  
    20    12    13 ar  
    21    13    14 1   
    22    14    15 1   
    23    14    24 1   
    24    15    16 ar  
    25    16    17 ar  
    26    16    22 1   
    27    17    47 1   
    28    18    20 1   
    29    25    26 1   
    30    25    29 1   
    31    25    30 1   
    32    26    27 1   
    33    26    31 1   
    34    26    32 1   
    35    27    28 1   
    36    27    33 1   
    37    27    34 1   
    38    28    29 1   
    39    28    35 1   
    40    28    36 1   
    41    29    37 1   
    42    29    38 1   
    43    37    39 1   
    44    37    40 1   
    45    39    41 1   
    46    39    42 1   
    47    39    43 1   
    48    40    44 1   
    49    40    45 1   
    50    40    46 1   
    51    48    49 1   
    52    48    50 1   
    53    48    51 1   
    54    49    54 1   
    55    49    55 1   
    56    49    56 1   
    57    51    52 2   
    58    51    53 2   
@<TRIPOS>SUBSTRUCTURE
     1 CPD         1 TEMP              0 ****  ****    0 ROOT
