@<TRIPOS>MOLECULE
CPD
   52    55     1     0     0
SMALL
No Charge or Current Charge


@<TRIPOS>ATOM
      1 C35         -1.6340   -12.3720    37.4330 c3         1 CPD      -0.249314
      2 C34         -1.7980   -12.3380    33.9850 c3         1 CPD      -0.418828
      3 N2           3.2650    -8.8830    41.4420 nb         1 CPD      -0.911008
      4 C7           4.2310    -8.5550    40.5630 ca         1 CPD       0.589703
      5 C6           4.1710    -8.8430    39.2080 ca         1 CPD      -0.906425
      6 C13          0.5940    -9.7310    36.6130 ca         1 CPD      -0.151391
      7 C20         -0.6600   -10.2750    36.3090 ca         1 CPD       0.663778
      8 C21         -2.7660   -11.1230    41.3600 ca         1 CPD       0.106108
      9 C18         -0.3480    -7.5320    36.2250 ca         1 CPD      -0.368304
     10 C16         -0.9060   -10.0030    40.4470 ca         1 CPD      -0.284803
     11 C19         -1.5480    -8.1720    35.9330 ca         1 CPD       0.213307
     12 O33          0.7510   -12.0470    34.3070 o          1 CPD      -0.568738
     13 S31         -0.3620   -12.6800    35.0020 s6         1 CPD       1.132131
     14 O32         -0.3820   -14.0880    35.3210 o          1 CPD      -0.568738
     15 N30         -0.8880   -11.7280    36.3290 nh         1 CPD      -0.497064
     16 C17          0.7350    -8.3310    36.5690 ca         1 CPD       0.025278
     17 N1          -1.7330    -9.5100    35.9670 nb         1 CPD      -0.576849
     18 C12          1.7620   -10.5970    36.9830 c3         1 CPD       0.061991
     19 N10          2.8720    -9.7760    37.4100 nh         1 CPD      -0.708161
     20 C5           3.0140    -9.4770    38.7580 ca         1 CPD       0.879723
     21 N4           2.0340    -9.8190    39.6250 nb         1 CPD      -0.723502
     22 C3           2.1780    -9.5040    40.9320 ca         1 CPD       1.057949
     23 N9           1.1670    -9.8200    41.8350 nh         1 CPD      -0.758078
     24 C11         -0.1590   -10.2380    41.6320 ca         1 CPD       0.356910
     25 C14         -0.7570   -10.9480    42.6890 ca         1 CPD      -0.359543
     26 C22         -2.0530   -11.3680    42.5260 ca         1 CPD       0.108429
     27 C23         -2.9040   -12.1270    43.4880 c3         1 CPD      -0.229647
     28 C15         -2.2230   -10.4420    40.2940 ca         1 CPD      -0.212112
     29 N25         -4.0420   -11.6670    41.4730 n          1 CPD      -0.559085
     30 C24         -4.2180   -12.2950    42.7140 c          1 CPD       0.711085
     31 O26         -5.2060   -12.8810    43.1440 o          1 CPD      -0.611438
     32 H7           5.1160    -8.0370    40.9020 h4         1 CPD       0.068619
     33 H15         -2.8110   -10.2740    39.4040 ha         1 CPD       0.185230
     34 H16         -0.4580    -9.4670    39.6230 ha         1 CPD       0.189630
     35 H14         -0.1970   -11.1460    43.5910 ha         1 CPD       0.194639
     36 H18         -0.2380    -6.4580    36.1920 ha         1 CPD       0.183931
     37 H17          1.6860    -7.8770    36.8030 ha         1 CPD       0.133119
     38 H19         -2.4160    -7.5920    35.6550 h4         1 CPD       0.096385
     39 H351        -1.6900   -13.4460    37.2560 h1         1 CPD       0.136691
     40 H352        -1.1210   -12.1860    38.3760 h1         1 CPD       0.136691
     41 H353        -2.6420   -11.9590    37.4810 h1         1 CPD       0.136691
     42 H341        -2.6820   -12.7830    34.4420 h1         1 CPD       0.154225
     43 H342        -1.9370   -11.2600    33.9020 h1         1 CPD       0.154225
     44 H343        -1.6500   -12.7620    32.9920 h1         1 CPD       0.154225
     45 H121         2.0610   -11.1910    36.1200 h1         1 CPD       0.104367
     46 H122         1.4740   -11.2680    37.7920 h1         1 CPD       0.104367
     47 HN10         3.5400    -9.4210    36.7410 hn         1 CPD       0.392023
     48 HN9          1.3410    -9.7630    42.8280 hn         1 CPD       0.392863
     49 H231        -3.0830   -11.5130    44.3710 hc         1 CPD       0.111473
     50 H232        -2.4620   -13.1080    43.6620 hc         1 CPD       0.111473
     51 HN25        -4.6990   -11.5770    40.7110 hn         1 CPD       0.370711
     52 H6           4.9950    -8.5770    38.5620 ha         1 CPD       0.245059
@<TRIPOS>BOND
     1     1    15 1   
     2     1    39 1   
     3     1    40 1   
     4     1    41 1   
     5     2    13 1   
     6     2    42 1   
     7     2    43 1   
     8     2    44 1   
     9     3     4 ar  
    10     3    22 ar  
    11     4     5 ar  
    12     4    32 1   
    13     5    20 ar  
    14     5    52 1   
    15     6     7 ar  
    16     6    16 ar  
    17     6    18 1   
    18     7    15 1   
    19     7    17 ar  
    20     8    26 ar  
    21     8    28 ar  
    22     8    29 1   
    23     9    11 ar  
    24     9    16 ar  
    25     9    36 1   
    26    10    24 ar  
    27    10    28 ar  
    28    10    34 1   
    29    11    17 ar  
    30    11    38 1   
    31    12    13 2   
    32    13    14 2   
    33    13    15 1   
    34    16    37 1   
    35    18    19 1   
    36    18    45 1   
    37    18    46 1   
    38    19    20 1   
    39    19    47 1   
    40    20    21 ar  
    41    21    22 ar  
    42    22    23 1   
    43    23    24 1   
    44    23    48 1   
    45    24    25 ar  
    46    25    26 ar  
    47    25    35 1   
    48    26    27 1   
    49    27    30 1   
    50    27    49 1   
    51    27    50 1   
    52    28    33 1   
    53    29    30 1   
    54    29    51 1   
    55    30    31 2   
@<TRIPOS>SUBSTRUCTURE
     1 CPD         1 TEMP              0 ****  ****    0 ROOT
