@<TRIPOS>MOLECULE
CPD
   50    52     1     0     0
SMALL
No Charge or Current Charge


@<TRIPOS>ATOM
      1 C35         -1.6340   -12.3720    37.4330 c3         1 CPD      -0.265169
      2 C34         -1.7980   -12.3380    33.9850 c3         1 CPD      -0.372177
      3 N2           3.2650    -8.8830    41.4420 nb         1 CPD      -0.905565
      4 C7           4.2310    -8.5550    40.5630 ca         1 CPD       0.550020
      5 C6           4.1710    -8.8430    39.2080 ca         1 CPD      -0.702462
      6 C13          0.5940    -9.7310    36.6130 ca         1 CPD      -0.205373
      7 C20         -0.6600   -10.2750    36.3090 ca         1 CPD       0.688514
      8 C21         -2.7660   -11.1230    41.3600 ca         1 CPD      -0.186784
      9 C8           5.2620    -8.4190    38.2850 c3         1 CPD       0.723074
     10 C18         -0.3480    -7.5320    36.2250 ca         1 CPD      -0.385055
     11 C16         -0.9060   -10.0030    40.4470 ca         1 CPD      -0.234116
     12 C19         -1.5480    -8.1720    35.9330 ca         1 CPD       0.244936
     13 O33          0.7510   -12.0470    34.3070 o          1 CPD      -0.563922
     14 S31         -0.3620   -12.6800    35.0020 s6         1 CPD       1.110058
     15 O32         -0.3820   -14.0880    35.3210 o          1 CPD      -0.563922
     16 N30         -0.8880   -11.7280    36.3290 nh         1 CPD      -0.483379
     17 C17          0.7350    -8.3310    36.5690 ca         1 CPD       0.056566
     18 N1          -1.7330    -9.5100    35.9670 nb         1 CPD      -0.585691
     19 C12          1.7620   -10.5970    36.9830 c3         1 CPD       0.063012
     20 N10          2.8720    -9.7760    37.4100 nh         1 CPD      -0.602924
     21 C5           3.0140    -9.4770    38.7580 ca         1 CPD       0.723068
     22 F29          4.7720    -7.5920    37.3110 f          1 CPD      -0.224917
     23 F28          6.2060    -7.6350    38.8770 f          1 CPD      -0.224917
     24 F27          5.8980    -9.4440    37.6670 f          1 CPD      -0.224917
     25 N4           2.0340    -9.8190    39.6250 nb         1 CPD      -0.686389
     26 C3           2.1780    -9.5040    40.9320 ca         1 CPD       1.104200
     27 N9           1.1670    -9.8200    41.8350 nh         1 CPD      -0.811386
     28 C11         -0.1590   -10.2380    41.6320 ca         1 CPD       0.384482
     29 C14         -0.7570   -10.9480    42.6890 ca         1 CPD      -0.234116
     30 C22         -2.0530   -11.3680    42.5260 ca         1 CPD      -0.123953
     31 C15         -2.2230   -10.4420    40.2940 ca         1 CPD      -0.123953
     32 H351        -1.6890   -13.4260    37.2590 h1         1 CPD       0.138950
     33 H352        -2.6230   -11.9670    37.4790 h1         1 CPD       0.138950
     34 H353        -1.1300   -12.1890    38.3590 h1         1 CPD       0.138950
     35 H341        -1.7020   -12.8490    33.0500 h1         1 CPD       0.141494
     36 H342        -1.8690   -11.2850    33.8110 h1         1 CPD       0.141494
     37 H343        -2.6800   -12.6760    34.4880 h1         1 CPD       0.141494
     38 H7           5.0640    -8.0610    40.9180 h4         1 CPD       0.094735
     39 H18         -0.2660    -6.5040    36.1880 ha         1 CPD       0.185931
     40 H16         -0.4600    -9.4890    39.6710 ha         1 CPD       0.151309
     41 H19         -2.3540    -7.5830    35.6720 h4         1 CPD       0.088850
     42 H17          1.6440    -7.8980    36.7930 ha         1 CPD       0.128310
     43 H121         2.0570   -11.1760    36.1330 h1         1 CPD       0.105578
     44 H122         1.4770   -11.2460    37.7850 h1         1 CPD       0.105578
     45 H10          3.5200    -9.4330    36.7530 hn         1 CPD       0.364239
     46 H9           1.4260    -9.7360    42.7810 hn         1 CPD       0.407879
     47 H14         -0.2380   -11.1460    43.5590 ha         1 CPD       0.151309
     48 H15         -2.7590   -10.2660    39.4300 ha         1 CPD       0.145853
     49 H21         -3.7840   -11.4710    41.2660 ha         1 CPD       0.146399
     50 H22         -2.5170   -11.9050    43.3400 ha         1 CPD       0.145853
@<TRIPOS>BOND
     1     1    16 1   
     2     1    32 1   
     3     1    33 1   
     4     1    34 1   
     5     2    14 1   
     6     2    35 1   
     7     2    36 1   
     8     2    37 1   
     9     3     4 ar  
    10     3    26 ar  
    11     4     5 ar  
    12     4    38 1   
    13     5     9 1   
    14     5    21 ar  
    15     6     7 ar  
    16     6    17 ar  
    17     6    19 1   
    18     7    16 1   
    19     7    18 ar  
    20     8    30 ar  
    21     8    31 ar  
    22     8    49 1   
    23     9    22 1   
    24     9    23 1   
    25     9    24 1   
    26    10    12 ar  
    27    10    17 ar  
    28    10    39 1   
    29    11    28 ar  
    30    11    31 ar  
    31    11    40 1   
    32    12    18 ar  
    33    12    41 1   
    34    13    14 2   
    35    14    15 2   
    36    14    16 1   
    37    17    42 1   
    38    19    20 1   
    39    19    43 1   
    40    19    44 1   
    41    20    21 1   
    42    20    45 1   
    43    21    25 ar  
    44    25    26 ar  
    45    26    27 1   
    46    27    28 1   
    47    27    46 1   
    48    28    29 ar  
    49    29    30 ar  
    50    29    47 1   
    51    30    50 1   
    52    31    48 1   
@<TRIPOS>SUBSTRUCTURE
     1 CPD         1 TEMP              0 ****  ****    0 ROOT
