@<TRIPOS>MOLECULE
CPD
   54    57     1     0     0
SMALL
No Charge or Current Charge


@<TRIPOS>ATOM
      1 N2           3.3180    -8.7640    41.3230 nb         1 CPD      -0.922372
      2 C7           4.3220    -8.4290    40.4910 ca         1 CPD       0.592395
      3 C6           4.2980    -8.7260    39.1210 ca         1 CPD      -0.705782
      4 C13          0.5790    -9.7020    36.5780 ca         1 CPD       0.067879
      5 C20         -0.6310   -10.4110    36.5420 ca         1 CPD      -0.193279
      6 C21         -2.6100   -11.3100    41.5060 ca         1 CPD       0.140944
      7 C8           5.4590    -8.3440    38.2220 c3         1 CPD       0.693856
      8 C18         -0.6370    -7.6460    36.0630 ca         1 CPD      -0.196700
      9 C16         -0.8740    -9.8950    40.5390 ca         1 CPD      -0.224367
     10 C19         -1.8540    -8.3660    36.0280 ca         1 CPD      -0.127642
     11 C17          0.5780    -8.3030    36.3400 ca         1 CPD      -0.077807
     12 C12         -1.8350    -9.7580    36.2610 ca         1 CPD      -0.038258
     13 C9           1.8460   -10.5020    36.8550 c3         1 CPD      -0.058337
     14 N10          3.0030    -9.7470    37.3180 nh         1 CPD      -0.479817
     15 C5           3.1460    -9.3900    38.6660 ca         1 CPD       0.661527
     16 F29          5.0260    -7.5850    37.2160 f          1 CPD      -0.218400
     17 F28          6.3960    -7.6670    38.8830 f          1 CPD      -0.218400
     18 F27          6.0130    -9.4440    37.7140 f          1 CPD      -0.218400
     19 N4           2.1430    -9.7060    39.5080 nb         1 CPD      -0.643806
     20 C3           2.2830    -9.3800    40.7820 ca         1 CPD       1.062379
     21 N9           1.2930    -9.7110    41.6700 nh         1 CPD      -0.758217
     22 C11          0.0230   -10.2900    41.5560 ca         1 CPD       0.271489
     23 C14         -0.3900   -11.2270    42.5270 ca         1 CPD      -0.284233
     24 C22         -1.7000   -11.7440    42.4950 ca         1 CPD       0.008697
     25 C15         -2.1900   -10.3960    40.5180 ca         1 CPD      -0.202982
     26 N25         -3.9460   -11.7870    41.5200 n          1 CPD      -0.511614
     27 C24         -4.5170   -12.3900    42.5760 c          1 CPD       0.688958
     28 O26         -5.6880   -12.7620    42.5620 o          1 CPD      -0.618214
     29 H7           5.1580    -7.9170    40.9440 h4         1 CPD       0.084248
     30 H15         -2.8780   -10.0570    39.7570 ha         1 CPD       0.157351
     31 H16         -0.5650    -9.1840    39.7860 ha         1 CPD       0.179180
     32 H14          0.2930   -11.5480    43.3000 ha         1 CPD       0.169915
     33 H18         -0.6240    -6.5860    35.8670 ha         1 CPD       0.165885
     34 H17          1.5030    -7.7430    36.3680 ha         1 CPD       0.123052
     35 H19         -2.7680    -7.8490    35.7940 ha         1 CPD       0.150648
     36 H121         2.1320   -11.0390    35.9490 h1         1 CPD       0.105107
     37 H122         1.6100   -11.2790    37.5870 h1         1 CPD       0.105107
     38 HN10         3.7800    -9.6390    36.6830 hn         1 CPD       0.324692
     39 HN9          1.5890    -9.5440    42.6150 hn         1 CPD       0.411039
     40 HN25        -4.5160   -11.6340    40.7000 hn         1 CPD       0.340220
     41 C41         -3.6660   -12.5600    43.8430 c3         1 CPD      -0.063843
     42 H42         -4.0460   -13.3910    44.4390 hc         1 CPD       0.034173
     43 C43         -2.1760   -12.7700    43.5080 c3         1 CPD      -0.016078
     44 H44         -3.7880   -11.6560    44.4400 hc         1 CPD       0.034173
     45 H45         -2.0310   -13.7650    43.0820 hc         1 CPD       0.042641
     46 H46         -1.5710   -12.7170    44.4130 hc         1 CPD       0.042641
     47 S47         -3.2910   -10.8260    36.2400 sy         1 CPD       1.092299
     48 H20         -0.6400   -11.4810    36.7140 ha         1 CPD       0.176666
     49 O49         -2.9720   -11.9790    35.3830 o          1 CPD      -0.575217
     50 O50         -3.7110   -11.0560    37.6310 o          1 CPD      -0.575217
     51 C51         -4.6430    -9.9330    35.4240 c3         1 CPD      -0.641788
     52 H52         -5.3620   -10.7050    35.1490 h1         1 CPD       0.214537
     53 H53         -5.0740    -9.2600    36.1660 h1         1 CPD       0.214537
     54 H54         -4.2900    -9.4100    34.5360 h1         1 CPD       0.214537
@<TRIPOS>BOND
     1     1     2 ar  
     2     1    20 ar  
     3     2     3 ar  
     4     2    29 1   
     5     3     7 1   
     6     3    15 ar  
     7     4     5 ar  
     8     4    11 ar  
     9     4    13 1   
    10     5    12 ar  
    11     5    48 1   
    12     6    24 ar  
    13     6    25 ar  
    14     6    26 1   
    15     7    16 1   
    16     7    17 1   
    17     7    18 1   
    18     8    10 ar  
    19     8    11 ar  
    20     8    33 1   
    21     9    22 ar  
    22     9    25 ar  
    23     9    31 1   
    24    10    12 ar  
    25    10    35 1   
    26    11    34 1   
    27    12    47 1   
    28    13    14 1   
    29    13    36 1   
    30    13    37 1   
    31    14    15 1   
    32    14    38 1   
    33    15    19 ar  
    34    19    20 ar  
    35    20    21 1   
    36    21    22 1   
    37    21    39 1   
    38    22    23 ar  
    39    23    24 ar  
    40    23    32 1   
    41    24    43 1   
    42    25    30 1   
    43    26    27 1   
    44    26    40 1   
    45    27    28 2   
    46    27    41 1   
    47    41    42 1   
    48    41    43 1   
    49    41    44 1   
    50    43    45 1   
    51    43    46 1   
    52    47    49 2   
    53    47    50 2   
    54    47    51 1   
    55    51    52 1   
    56    51    53 1   
    57    51    54 1   
@<TRIPOS>SUBSTRUCTURE
     1 CPD         1 TEMP              0 ****  ****    0 ROOT
