@<TRIPOS>MOLECULE
CPD
   47    51     1     0     0
SMALL
No Charge or Current Charge


@<TRIPOS>ATOM
      1 N2           3.0810    -8.9790    41.3540 nb         1 CPD      -0.905544
      2 C7           4.1510    -8.6120    40.6440 ca         1 CPD       0.541230
      3 C6           4.2960    -8.8460    39.2660 ca         1 CPD      -0.719910
      4 C21         -2.8880   -11.1830    41.2960 ca         1 CPD       0.135690
      5 C8           5.6940    -8.5250    38.7050 c3         1 CPD       0.688013
      6 C16         -1.0250   -10.1290    40.2090 ca         1 CPD      -0.326719
      7 N10          2.8920    -9.7240    37.2660 nh         1 CPD      -0.839912
      8 C5           3.1400    -9.4060    38.6330 ca         1 CPD       0.990401
      9 F29          5.8300    -7.2290    38.3980 f          1 CPD      -0.211172
     10 F28          6.5930    -8.6980    39.6780 f          1 CPD      -0.211172
     11 F27          6.1070    -9.2930    37.6870 f          1 CPD      -0.211172
     12 N4           2.0720    -9.7680    39.3840 nb         1 CPD      -0.915639
     13 C3           2.1090    -9.5510    40.6950 ca         1 CPD       1.163642
     14 N9           1.0730    -9.9420    41.5040 nh         1 CPD      -0.790569
     15 C11         -0.2370   -10.3890    41.3620 ca         1 CPD       0.403678
     16 C14         -0.7870   -11.0500    42.4800 ca         1 CPD      -0.360638
     17 C22         -2.1240   -11.4370    42.4210 ca         1 CPD       0.089154
     18 C23         -2.9450   -12.1530    43.4630 c3         1 CPD      -0.196679
     19 C15         -2.3790   -10.5240    40.1730 ca         1 CPD      -0.214681
     20 N25         -4.1710   -11.6870    41.4930 n          1 CPD      -0.554675
     21 C24         -4.2700   -12.2730    42.6960 c          1 CPD       0.702276
     22 O26         -5.2650   -12.8380    43.1340 o          1 CPD      -0.607148
     23 H7           4.9370    -8.1520    41.2290 h4         1 CPD       0.090300
     24 H15         -3.0070   -10.3240    39.3170 ha         1 CPD       0.182488
     25 H16         -0.6010    -9.6040    39.3640 ha         1 CPD       0.214963
     26 H14         -0.1870   -11.2420    43.3660 ha         1 CPD       0.196345
     27 HN9          1.3350    -9.8760    42.4700 hn         1 CPD       0.395419
     28 H231        -3.0710   -11.5560    44.3650 hc         1 CPD       0.100860
     29 H232        -2.5280   -13.1300    43.7010 hc         1 CPD       0.100860
     30 HN25        -4.9040   -11.6400    40.8060 hn         1 CPD       0.370225
     31 HN10         2.1230   -10.3740    37.1710 hn         1 CPD       0.421776
     32 C32          4.2600    -9.8050    33.7510 ca         1 CPD      -0.293403
     33 C33          3.4460   -10.1070    34.8800 ca         1 CPD      -0.207309
     34 C34          3.5200    -9.3260    36.0710 ca         1 CPD       0.351370
     35 C35          4.2990    -8.1570    36.0450 ca         1 CPD      -0.366346
     36 H36          4.2130   -10.4180    32.8570 ha         1 CPD       0.197484
     37 H37          2.7970   -10.9730    34.8430 ha         1 CPD       0.190530
     38 H38          4.2750    -7.5040    36.8840 ha         1 CPD       0.212926
     39 C39          5.2290    -8.7870    33.9030 ca         1 CPD       0.175551
     40 C40          5.2680    -8.0020    35.0450 ca         1 CPD       0.105182
     41 C41          6.5380    -7.1790    35.0830 c3         1 CPD      -0.221416
     42 C42          7.0720    -7.5080    33.6850 c          1 CPD       0.703487
     43 N43          6.2980    -8.4230    33.0710 n          1 CPD      -0.556268
     44 H44          6.3850    -6.1130    35.2520 hc         1 CPD       0.108056
     45 H45          7.2240    -7.5900    35.8320 hc         1 CPD       0.108056
     46 O46          8.0830    -6.9930    33.2160 o          1 CPD      -0.602341
     47 H47          6.4820    -8.7720    32.1420 hn         1 CPD       0.372752
@<TRIPOS>BOND
     1     1     2 ar  
     2     1    13 ar  
     3     2     3 ar  
     4     2    23 1   
     5     3     5 1   
     6     3     8 ar  
     7     4    17 ar  
     8     4    19 ar  
     9     4    20 1   
    10     5     9 1   
    11     5    10 1   
    12     5    11 1   
    13     6    15 ar  
    14     6    19 ar  
    15     6    25 1   
    16     7     8 1   
    17     7    31 1   
    18     7    34 1   
    19     8    12 ar  
    20    12    13 ar  
    21    13    14 1   
    22    14    15 1   
    23    14    27 1   
    24    15    16 ar  
    25    16    17 ar  
    26    16    26 1   
    27    17    18 1   
    28    18    21 1   
    29    18    28 1   
    30    18    29 1   
    31    19    24 1   
    32    20    21 1   
    33    20    30 1   
    34    21    22 2   
    35    32    33 ar  
    36    32    36 1   
    37    32    39 ar  
    38    33    34 ar  
    39    33    37 1   
    40    34    35 ar  
    41    35    38 1   
    42    35    40 ar  
    43    39    40 ar  
    44    39    43 1   
    45    40    41 1   
    46    41    42 1   
    47    41    44 1   
    48    41    45 1   
    49    42    43 1   
    50    42    46 2   
    51    43    47 1   
@<TRIPOS>SUBSTRUCTURE
     1 CPD         1 TEMP              0 ****  ****    0 ROOT
