@<TRIPOS>MOLECULE
CPD
   44    47     1     0     0
SMALL
No Charge or Current Charge


@<TRIPOS>ATOM
      1 N2           3.2650    -8.8830    41.4420 nb         1 CPD      -0.928607
      2 C7           4.2310    -8.5550    40.5630 ca         1 CPD       0.597320
      3 C6           4.1710    -8.8430    39.2080 ca         1 CPD      -0.704123
      4 C13          0.5940    -9.7310    36.6130 ca         1 CPD      -0.202717
      5 C20         -0.6600   -10.2750    36.3090 ca         1 CPD       0.390598
      6 C21         -2.7660   -11.1230    41.3600 ca         1 CPD       0.096886
      7 C8           5.2620    -8.4190    38.2850 c3         1 CPD       0.693139
      8 C18         -0.3480    -7.5320    36.2250 ca         1 CPD      -0.544125
      9 C16         -0.9060   -10.0030    40.4470 ca         1 CPD      -0.348800
     10 C19         -1.5480    -8.1720    35.9330 ca         1 CPD       0.447284
     11 C17          0.7350    -8.3310    36.5690 ca         1 CPD       0.190710
     12 N1          -1.7330    -9.5100    35.9670 nb         1 CPD      -0.678659
     13 C12          1.7620   -10.5970    36.9830 c3         1 CPD      -0.133015
     14 N10          2.8720    -9.7760    37.4100 nh         1 CPD      -0.460857
     15 C5           3.0140    -9.4770    38.7580 ca         1 CPD       0.658239
     16 F29          4.7720    -7.5920    37.3110 f          1 CPD      -0.218655
     17 F28          6.2060    -7.6350    38.8770 f          1 CPD      -0.218655
     18 F27          5.8980    -9.4440    37.6670 f          1 CPD      -0.218655
     19 N4           2.0340    -9.8190    39.6250 nb         1 CPD      -0.671620
     20 C3           2.1780    -9.5040    40.9320 ca         1 CPD       1.086264
     21 N9           1.1670    -9.8200    41.8350 nh         1 CPD      -0.766721
     22 C11         -0.1590   -10.2380    41.6320 ca         1 CPD       0.351295
     23 C14         -0.7570   -10.9480    42.6890 ca         1 CPD      -0.350955
     24 C22         -2.0530   -11.3680    42.5260 ca         1 CPD       0.104521
     25 C23         -2.9040   -12.1270    43.4880 c3         1 CPD      -0.211885
     26 C15         -2.2230   -10.4420    40.2940 ca         1 CPD      -0.146471
     27 N25         -4.0420   -11.6670    41.4730 n          1 CPD      -0.538785
     28 C24         -4.2180   -12.2950    42.7140 c          1 CPD       0.702979
     29 O26         -5.2060   -12.8810    43.1440 o          1 CPD      -0.609457
     30 H7           5.0640    -8.0610    40.9180 h4         1 CPD       0.082829
     31 H18         -0.2660    -6.5040    36.1880 ha         1 CPD       0.206454
     32 H16         -0.4600    -9.4890    39.6710 ha         1 CPD       0.227049
     33 H19         -2.3540    -7.5830    35.6720 h4         1 CPD       0.044112
     34 H17          1.6440    -7.8980    36.7930 ha         1 CPD       0.094384
     35 H121         2.0570   -11.1760    36.1330 h1         1 CPD       0.126018
     36 H122         1.4770   -11.2460    37.7850 h1         1 CPD       0.126018
     37 H10          3.5200    -9.4330    36.7530 hn         1 CPD       0.336226
     38 H9           1.4260    -9.7360    42.7810 hn         1 CPD       0.406668
     39 H14         -0.2380   -11.1460    43.5590 ha         1 CPD       0.192070
     40 H231        -3.0560   -11.5720    44.3900 hc         1 CPD       0.103395
     41 H232        -2.4710   -13.0550    43.7980 hc         1 CPD       0.103395
     42 H15         -2.7590   -10.2660    39.4300 ha         1 CPD       0.168979
     43 H25         -4.7320   -11.6170    40.7720 hn         1 CPD       0.365356
     44 H20         -0.8070   -11.3450    36.3400 h4         1 CPD       0.050574
@<TRIPOS>BOND
     1     1     2 ar  
     2     1    20 ar  
     3     2     3 ar  
     4     2    30 1   
     5     3     7 1   
     6     3    15 ar  
     7     4     5 ar  
     8     4    11 ar  
     9     4    13 1   
    10     5    12 ar  
    11     5    44 1   
    12     6    24 ar  
    13     6    26 ar  
    14     6    27 1   
    15     7    16 1   
    16     7    17 1   
    17     7    18 1   
    18     8    10 ar  
    19     8    11 ar  
    20     8    31 1   
    21     9    22 ar  
    22     9    26 ar  
    23     9    32 1   
    24    10    12 ar  
    25    10    33 1   
    26    11    34 1   
    27    13    14 1   
    28    13    35 1   
    29    13    36 1   
    30    14    15 1   
    31    14    37 1   
    32    15    19 ar  
    33    19    20 ar  
    34    20    21 1   
    35    21    22 1   
    36    21    38 1   
    37    22    23 ar  
    38    23    24 ar  
    39    23    39 1   
    40    24    25 1   
    41    25    28 1   
    42    25    40 1   
    43    25    41 1   
    44    26    42 1   
    45    27    28 1   
    46    27    43 1   
    47    28    29 2   
@<TRIPOS>SUBSTRUCTURE
     1 CPD         1 TEMP              0 ****  ****    0 ROOT
